/*--------------------------------*- C++ -*----------------------------------*\
| =========                 |                                                 |
| \\      /  F ield         | OpenFOAM: The Open Source CFD Toolbox          |
|  \\    /   O peration     | Version: 2412                                  |
|   \\  /    A nd           | Web:      www.OpenFOAM.org                     |
|    \\/     M anipulation  |                                                 |
\*---------------------------------------------------------------------------*/

FoamFile
{
    version     2.0;
    format      ascii;
    class       dictionary;
    location    "constant";
    object      turbulenceProperties;
}

simulationType  RAS;

RAS
{
    RASModel        kEpsilon;        // bisa juga kOmegaSST, realizableKE, dll
    turbulence      on;
    printCoeffs     on;
}
